@<TRIPOS>MOLECULE
mixture_1.pdb
   82    81     1     0     0
SMALL
bcc


@<TRIPOS>ATOM
      1 O           36.0960    26.7000    21.8600 OH         1 LIG      -0.591800
      2 C           34.9340    26.4960    22.6500 CT         1 LIG       0.125400
      3 C1          34.2560    25.1750    22.3000 CT         1 LIG       0.088400
      4 O1          33.0690    25.0320    23.0800 OS         1 LIG      -0.416600
      5 C2          32.3110    23.8690    22.7400 CT         1 LIG       0.093400
      6 C3          32.9010    22.5840    23.3300 CT         1 LIG       0.095400
      7 O2          32.1140    21.4380    23.0100 OS         1 LIG      -0.414600
      8 C4          30.9360    21.2970    23.8000 CT         1 LIG       0.091400
      9 C5          29.6920    21.3610    22.9100 CT         1 LIG       0.101400
     10 O3          28.4910    21.1050    23.6400 OS         1 LIG      -0.426600
     11 C6          28.0200    22.2380    24.3800 CT         1 LIG       0.086400
     12 C7          26.7230    21.8750    25.1100 CT         1 LIG       0.130400
     13 O4          25.5630    21.9790    24.2800 OS         1 LIG      -0.426600
     14 C8          25.5100    21.0000    23.2300 CT         1 LIG       0.122400
     15 C9          24.0660    20.8790    22.7400 CT         1 LIG       0.113400
     16 O5          23.3330    20.0420    23.6500 OS         1 LIG      -0.405600
     17 C10         21.9310    20.0140    23.3700 CT         1 LIG       0.113100
     18 C11         21.4060    18.7210    23.9900 CT         1 LIG      -0.091100
     19 C12         21.1600    21.2160    23.9500 C          1 LIG       0.607100
     20 O6          21.6570    22.1930    24.4900 O          1 LIG      -0.533000
     21 O7          19.8180    21.0550    23.7600 OS         1 LIG      -0.424900
     22 C13         19.0200    22.1390    24.2500 CT         1 LIG       0.117100
     23 C14         17.5770    21.6560    24.2900 CT         1 LIG      -0.101100
     24 C15         19.1140    23.3750    23.3600 C          1 LIG       0.627100
     25 O8          19.4810    23.3700    22.1900 O          1 LIG      -0.522000
     26 O9          18.7030    24.4830    24.0400 OS         1 LIG      -0.423900
     27 C16         18.5590    25.6660    23.2400 CT         1 LIG       0.110100
     28 C17         18.6120    26.8690    24.1700 CT         1 LIG      -0.100100
     29 C18         17.2250    25.6690    22.4900 C          1 LIG       0.619100
     30 O10         17.0240    26.2260    21.4200 O          1 LIG      -0.529000
     31 O11         16.2650    25.0170    23.2100 OS         1 LIG      -0.414900
     32 C19         15.0000    24.8670    22.5500 CT         1 LIG       0.104100
     33 C20         13.9760    24.5320    23.6300 CT         1 LIG      -0.104100
     34 C21         15.0670    23.7360    21.5300 C          1 LIG       0.629100
     35 O12         16.0150    22.9740    21.3800 O          1 LIG      -0.526000
     36 O13         13.9160    23.6860    20.8000 OS         1 LIG      -0.423900
     37 C22         13.8370    22.5600    19.9200 CT         1 LIG       0.027100
     38 C23         12.6680    22.7860    18.9700 CT         1 LIG      -0.095100
     39 C24         13.6060    21.2590    20.6800 C          1 LIG       0.551900
     40 O14         13.3330    21.1960    21.8800 O          1 LIG      -0.507100
     41 H           35.7990    26.8680    20.9500 HO         1 LIG       0.398000
     42 H1          34.2510    27.3400    22.5100 H1         1 LIG       0.059700
     43 H2          35.2310    26.5000    23.7100 H1         1 LIG       0.059700
     44 H3          34.9490    24.3490    22.5000 H1         1 LIG       0.034200
     45 H4          34.0120    25.1580    21.2300 H1         1 LIG       0.034200
     46 H5          32.1880    23.7840    21.6500 H1         1 LIG       0.054700
     47 H6          31.3060    24.0250    23.1500 H1         1 LIG       0.054700
     48 H7          33.8960    22.4090    22.9000 H1         1 LIG       0.057200
     49 H8          33.0460    22.6680    24.4100 H1         1 LIG       0.057200
     50 H9          30.8920    22.0410    24.6000 H1         1 LIG       0.056200
     51 H10         30.9800    20.3180    24.2900 H1         1 LIG       0.056200
     52 H11         29.7730    20.5910    22.1400 H1         1 LIG       0.058700
     53 H12         29.6280    22.3180    22.3800 H1         1 LIG       0.058700
     54 H13         27.8520    23.0760    23.6900 H1         1 LIG       0.041200
     55 H14         28.7730    22.5170    25.1200 H1         1 LIG       0.041200
     56 H15         26.7710    20.8720    25.5400 H1         1 LIG       0.060700
     57 H16         26.5700    22.5900    25.9200 H1         1 LIG       0.060700
     58 H17         26.1450    21.3450    22.4100 H1         1 LIG       0.055700
     59 H18         25.8650    20.0310    23.6000 H1         1 LIG       0.055700
     60 H19         23.6000    21.8660    22.6800 H1         1 LIG       0.058700
     61 H20         24.0570    20.4020    21.7600 H1         1 LIG       0.058700
     62 H21         21.7670    19.9890    22.2900 H1         1 LIG       0.079700
     63 H22         21.9860    17.8610    23.6400 HC         1 LIG       0.058700
     64 H23         20.3530    18.5510    23.7500 HC         1 LIG       0.058700
     65 H24         21.5020    18.7460    25.0800 HC         1 LIG       0.058700
     66 H25         19.3400    22.3970    25.2700 H1         1 LIG       0.104700
     67 H26         17.4870    20.7670    24.9300 HC         1 LIG       0.069033
     68 H27         17.2360    21.3650    23.2900 HC         1 LIG       0.069033
     69 H28         16.9020    22.4300    24.6700 HC         1 LIG       0.069033
     70 H29         19.3770    25.7380    22.5100 H1         1 LIG       0.115700
     71 H30         18.5580    27.8070    23.6100 HC         1 LIG       0.063033
     72 H31         19.5350    26.8610    24.7500 HC         1 LIG       0.063033
     73 H32         17.7800    26.8530    24.8800 HC         1 LIG       0.063033
     74 H33         14.7180    25.8010    22.0500 H1         1 LIG       0.116700
     75 H34         14.2410    23.6030    24.1400 HC         1 LIG       0.063700
     76 H35         12.9730    24.4120    23.2100 HC         1 LIG       0.063700
     77 H36         13.9450    25.3220    24.3900 HC         1 LIG       0.063700
     78 H37         14.7590    22.4690    19.3300 H1         1 LIG       0.100700
     79 H38         12.5440    21.9460    18.2800 HC         1 LIG       0.055700
     80 H39         11.7300    22.9110    19.5300 HC         1 LIG       0.055700
     81 H40         12.8180    23.7010    18.3900 HC         1 LIG       0.055700
     82 H41         13.6840    20.3410    20.0700 HA         1 LIG       0.004200
@<TRIPOS>BOND
     1     1     2 1   
     2     2     3 1   
     3     3     4 1   
     4     4     5 1   
     5     5     6 1   
     6     6     7 1   
     7     7     8 1   
     8     8     9 1   
     9     9    10 1   
    10    10    11 1   
    11    11    12 1   
    12    12    13 1   
    13    13    14 1   
    14    14    15 1   
    15    15    16 1   
    16    16    17 1   
    17    17    18 1   
    18    17    19 1   
    19    19    20 2   
    20    19    21 1   
    21    21    22 1   
    22    22    23 1   
    23    22    24 1   
    24    24    25 2   
    25    24    26 1   
    26    26    27 1   
    27    27    28 1   
    28    27    29 1   
    29    29    30 2   
    30    29    31 1   
    31    31    32 1   
    32    32    33 1   
    33    32    34 1   
    34    34    35 2   
    35    34    36 1   
    36    36    37 1   
    37    37    38 1   
    38    37    39 1   
    39    39    40 2   
    40     1    41 1   
    41     2    42 1   
    42     2    43 1   
    43     3    44 1   
    44     3    45 1   
    45     5    46 1   
    46     5    47 1   
    47     6    48 1   
    48     6    49 1   
    49     8    50 1   
    50     8    51 1   
    51     9    52 1   
    52     9    53 1   
    53    11    54 1   
    54    11    55 1   
    55    12    56 1   
    56    12    57 1   
    57    14    58 1   
    58    14    59 1   
    59    15    60 1   
    60    15    61 1   
    61    17    62 1   
    62    18    63 1   
    63    18    64 1   
    64    18    65 1   
    65    22    66 1   
    66    23    67 1   
    67    23    68 1   
    68    23    69 1   
    69    27    70 1   
    70    28    71 1   
    71    28    72 1   
    72    28    73 1   
    73    32    74 1   
    74    33    75 1   
    75    33    76 1   
    76    33    77 1   
    77    37    78 1   
    78    38    79 1   
    79    38    80 1   
    80    38    81 1   
    81    39    82 1   
@<TRIPOS>SUBSTRUCTURE
     1 LIG         1 TEMP              0 ****  ****    0 ROOT