@<TRIPOS>MOLECULE
mixture_1.pdb
  130   129     1     0     0
SMALL
bcc


@<TRIPOS>ATOM
      1 O           48.2130    26.4240    29.6100 oh         1 LIG      -0.602800
      2 C           47.7970    26.7850    28.3100 c3         1 LIG       0.127400
      3 C1          46.2790    26.9150    28.2700 c3         1 LIG       0.128400
      4 O1          45.8570    27.1560    26.9200 os         1 LIG      -0.430600
      5 C2          44.4410    27.3560    26.8600 c3         1 LIG       0.129400
      6 C3          43.9930    27.4480    25.4100 c3         1 LIG       0.126400
      7 O2          42.5860    27.6880    25.3900 os         1 LIG      -0.432600
      8 C4          42.0070    27.4340    24.1100 c3         1 LIG       0.094400
      9 C5          40.5270    27.8420    24.1300 c3         1 LIG       0.128400
     10 O3          39.6610    26.9170    24.8000 os         1 LIG      -0.433600
     11 C6          40.0220    26.6910    26.1800 c3         1 LIG       0.089400
     12 C7          38.8400    26.1170    26.9600 c3         1 LIG       0.123400
     13 O4          38.5380    24.7530    26.6600 os         1 LIG      -0.425600
     14 C8          37.9840    24.4980    25.3600 c3         1 LIG       0.085400
     15 C9          36.7460    25.3270    25.0000 c3         1 LIG       0.098400
     16 O5          35.7310    25.1240    25.9900 os         1 LIG      -0.417600
     17 C10         34.7770    26.1840    26.0200 c3         1 LIG       0.085400
     18 C11         33.7530    26.1050    24.8900 c3         1 LIG       0.094400
     19 O6          32.9590    27.2870    24.7500 os         1 LIG      -0.407600
     20 C12         32.1650    27.6470    25.8900 c3         1 LIG       0.093400
     21 C13         31.1410    26.5890    26.3200 c3         1 LIG       0.090400
     22 O7          30.3400    26.0610    25.2600 os         1 LIG      -0.405600
     23 C14         29.5450    26.9990    24.5400 c3         1 LIG       0.122400
     24 C15         28.4650    27.6790    25.3800 c3         1 LIG       0.085400
     25 O8          27.5910    28.3970    24.5100 os         1 LIG      -0.401600
     26 C16         26.4340    28.9610    25.1300 c3         1 LIG       0.115100
     27 C17         26.8280    30.0520    26.1300 c3         1 LIG      -0.130100
     28 C18         25.3980    28.0080    25.7500 c          1 LIG       0.625100
     29 O9          24.5030    28.3640    26.5000 o          1 LIG      -0.543000
     30 O10         25.5800    26.7190    25.3100 os         1 LIG      -0.425900
     31 C19         24.5780    25.7660    25.6900 c3         1 LIG       0.125100
     32 C20         23.3620    25.9600    24.7900 c3         1 LIG      -0.123100
     33 C21         24.2460    25.7260    27.2100 c          1 LIG       0.620100
     34 O11         25.0320    25.9750    28.1100 o          1 LIG      -0.512000
     35 O12         22.9650    25.3230    27.4000 os         1 LIG      -0.433900
     36 C22         22.4050    25.5270    28.7000 c3         1 LIG       0.111100
     37 C23         22.7660    24.3620    29.6100 c3         1 LIG      -0.097100
     38 C24         20.8940    25.5800    28.4900 c          1 LIG       0.628100
     39 O13         20.3220    25.3650    27.4300 o          1 LIG      -0.522000
     40 O14         20.2460    25.8950    29.6500 os         1 LIG      -0.422900
     41 C25         18.8180    25.9510    29.5400 c3         1 LIG       0.107100
     42 C26         18.2340    24.5460    29.6400 c3         1 LIG      -0.097100
     43 C27         18.2260    26.8110    30.6500 c          1 LIG       0.630100
     44 O15         18.8000    27.1910    31.6600 o          1 LIG      -0.519000
     45 O16         16.9110    27.0350    30.3800 os         1 LIG      -0.424900
     46 C28         16.1210    27.8300    31.2900 c3         1 LIG       0.114100
     47 C29         15.9260    27.0870    32.6100 c3         1 LIG      -0.097100
     48 C30         14.7420    28.0390    30.6300 c          1 LIG       0.621100
     49 O17         13.7140    28.3060    31.2500 o          1 LIG      -0.530000
     50 O18         14.7940    27.8650    29.2900 os         1 LIG      -0.420900
     51 C31         13.5360    27.8540    28.6000 c3         1 LIG       0.116100
     52 C32         13.0850    29.2720    28.2800 c3         1 LIG      -0.109100
     53 C33         13.7380    27.1030    27.2800 c          1 LIG       0.632100
     54 O19         14.5970    27.3560    26.4400 o          1 LIG      -0.521000
     55 O20         12.8070    26.1170    27.1500 os         1 LIG      -0.424900
     56 C34         12.8020    25.4550    25.8700 c3         1 LIG       0.112100
     57 C35         11.9600    24.2000    26.0200 c3         1 LIG      -0.097100
     58 C36         12.1990    26.2960    24.7400 c          1 LIG       0.623100
     59 O21         12.1330    25.9390    23.5600 o          1 LIG      -0.542000
     60 O22         11.6460    27.4490    25.2200 os         1 LIG      -0.418900
     61 C37         10.7070    28.0670    24.3300 c3         1 LIG       0.026100
     62 C38         10.4660    29.4900    24.8100 c3         1 LIG      -0.110100
     63 C39          9.3840    27.3120    24.3500 c          1 LIG       0.553900
     64 O23          9.1420    26.3650    25.1000 o          1 LIG      -0.520100
     65 H           49.0400    25.9140    29.5300 ho         1 LIG       0.405000
     66 H1          48.1320    26.0250    27.5900 h1         1 LIG       0.035700
     67 H2          48.2680    27.7360    28.0300 h1         1 LIG       0.035700
     68 H3          45.8150    25.9910    28.6300 h1         1 LIG       0.041700
     69 H4          45.9590    27.7360    28.9200 h1         1 LIG       0.041700
     70 H5          43.9180    26.5260    27.3500 h1         1 LIG       0.045200
     71 H6          44.1740    28.2710    27.4000 h1         1 LIG       0.045200
     72 H7          44.5040    28.2760    24.9000 h1         1 LIG       0.044700
     73 H8          44.2390    26.5200    24.8800 h1         1 LIG       0.044700
     74 H9          42.5370    28.0360    23.3600 h1         1 LIG       0.038700
     75 H10         42.1100    26.3700    23.8700 h1         1 LIG       0.038700
     76 H11         40.1620    27.8900    23.0900 h1         1 LIG       0.062200
     77 H12         40.4010    28.8300    24.5900 h1         1 LIG       0.062200
     78 H13         40.8520    25.9860    26.2100 h1         1 LIG       0.050200
     79 H14         40.3080    27.6400    26.6400 h1         1 LIG       0.050200
     80 H15         37.9470    26.7410    26.8600 h1         1 LIG       0.060700
     81 H16         39.1080    26.1240    28.0200 h1         1 LIG       0.060700
     82 H17         38.7630    24.6140    24.6000 h1         1 LIG       0.066200
     83 H18         37.7030    23.4380    25.3700 h1         1 LIG       0.066200
     84 H19         37.0030    26.3860    24.9200 h1         1 LIG       0.055200
     85 H20         36.3630    24.9980    24.0300 h1         1 LIG       0.055200
     86 H21         35.2780    27.1630    26.0400 h1         1 LIG       0.061700
     87 H22         34.2520    26.0980    26.9800 h1         1 LIG       0.061700
     88 H23         33.1160    25.2180    25.0000 h1         1 LIG       0.060700
     89 H24         34.2700    25.9720    23.9400 h1         1 LIG       0.060700
     90 H25         31.6490    28.5670    25.6100 h1         1 LIG       0.051700
     91 H26         32.8160    27.9010    26.7300 h1         1 LIG       0.051700
     92 H27         30.4910    26.9920    27.1000 h1         1 LIG       0.051200
     93 H28         31.6580    25.7300    26.7500 h1         1 LIG       0.051200
     94 H29         29.0590    26.4470    23.7200 h1         1 LIG       0.069200
     95 H30         30.1730    27.7500    24.0400 h1         1 LIG       0.069200
     96 H31         27.9350    26.9180    25.9600 h1         1 LIG       0.046700
     97 H32         28.9330    28.3720    26.0900 h1         1 LIG       0.046700
     98 H33         25.8900    29.4590    24.3200 h1         1 LIG       0.106700
     99 H34         25.9450    30.6120    26.4500 hc         1 LIG       0.062700
    100 H35         27.3120    29.6600    27.0200 hc         1 LIG       0.062700
    101 H36         27.5200    30.7570    25.6600 hc         1 LIG       0.062700
    102 H37         24.9860    24.7650    25.4700 h1         1 LIG       0.108700
    103 H38         22.5920    25.2120    24.9800 hc         1 LIG       0.068700
    104 H39         23.6630    25.9080    23.7300 hc         1 LIG       0.068700
    105 H40         22.9130    26.9450    24.9400 hc         1 LIG       0.068700
    106 H41         22.7270    26.4930    29.1100 h1         1 LIG       0.117700
    107 H42         23.8320    24.3740    29.8500 hc         1 LIG       0.061367
    108 H43         22.5700    23.4090    29.1100 hc         1 LIG       0.061367
    109 H44         22.2060    24.3780    30.5500 hc         1 LIG       0.061367
    110 H45         18.5320    26.4430    28.6000 h1         1 LIG       0.123700
    111 H46         18.5770    24.0420    30.5500 hc         1 LIG       0.061367
    112 H47         17.1410    24.5580    29.6400 hc         1 LIG       0.061367
    113 H48         18.5570    23.9280    28.7900 hc         1 LIG       0.061367
    114 H49         16.5820    28.8110    31.4300 h1         1 LIG       0.105700
    115 H50         15.6570    26.0460    32.4100 hc         1 LIG       0.064033
    116 H51         15.1460    27.5350    33.2300 hc         1 LIG       0.064033
    117 H52         16.8460    27.0730    33.2000 hc         1 LIG       0.064033
    118 H53         12.7770    27.3260    29.1900 h1         1 LIG       0.107700
    119 H54         13.8810    29.8240    27.7700 hc         1 LIG       0.072367
    120 H55         12.1990    29.2760    27.6300 hc         1 LIG       0.072367
    121 H56         12.8550    29.8250    29.1900 hc         1 LIG       0.072367
    122 H57         13.8250    25.1830    25.5900 h1         1 LIG       0.106700
    123 H58         11.8890    23.6390    25.0800 hc         1 LIG       0.063033
    124 H59         12.3870    23.5430    26.7900 hc         1 LIG       0.063033
    125 H60         10.9380    24.4390    26.3400 hc         1 LIG       0.063033
    126 H61         11.0840    28.0980    23.3000 h1         1 LIG       0.099700
    127 H62          9.6810    29.9850    24.2300 hc         1 LIG       0.061700
    128 H63         10.1690    29.5010    25.8700 hc         1 LIG       0.061700
    129 H64         11.3840    30.0820    24.7400 hc         1 LIG       0.061700
    130 H65          8.6250    27.6740    23.6400 h4         1 LIG       0.029200
@<TRIPOS>BOND
     1     1     2 1   
     2     2     3 1   
     3     3     4 1   
     4     4     5 1   
     5     5     6 1   
     6     6     7 1   
     7     7     8 1   
     8     8     9 1   
     9     9    10 1   
    10    10    11 1   
    11    11    12 1   
    12    12    13 1   
    13    13    14 1   
    14    14    15 1   
    15    15    16 1   
    16    16    17 1   
    17    17    18 1   
    18    18    19 1   
    19    19    20 1   
    20    20    21 1   
    21    21    22 1   
    22    22    23 1   
    23    23    24 1   
    24    24    25 1   
    25    25    26 1   
    26    26    27 1   
    27    26    28 1   
    28    28    29 2   
    29    28    30 1   
    30    30    31 1   
    31    31    32 1   
    32    31    33 1   
    33    33    34 2   
    34    33    35 1   
    35    35    36 1   
    36    36    37 1   
    37    36    38 1   
    38    38    39 2   
    39    38    40 1   
    40    40    41 1   
    41    41    42 1   
    42    41    43 1   
    43    43    44 2   
    44    43    45 1   
    45    45    46 1   
    46    46    47 1   
    47    46    48 1   
    48    48    49 2   
    49    48    50 1   
    50    50    51 1   
    51    51    52 1   
    52    51    53 1   
    53    53    54 2   
    54    53    55 1   
    55    55    56 1   
    56    56    57 1   
    57    56    58 1   
    58    58    59 2   
    59    58    60 1   
    60    60    61 1   
    61    61    62 1   
    62    61    63 1   
    63    63    64 2   
    64     1    65 1   
    65     2    66 1   
    66     2    67 1   
    67     3    68 1   
    68     3    69 1   
    69     5    70 1   
    70     5    71 1   
    71     6    72 1   
    72     6    73 1   
    73     8    74 1   
    74     8    75 1   
    75     9    76 1   
    76     9    77 1   
    77    11    78 1   
    78    11    79 1   
    79    12    80 1   
    80    12    81 1   
    81    14    82 1   
    82    14    83 1   
    83    15    84 1   
    84    15    85 1   
    85    17    86 1   
    86    17    87 1   
    87    18    88 1   
    88    18    89 1   
    89    20    90 1   
    90    20    91 1   
    91    21    92 1   
    92    21    93 1   
    93    23    94 1   
    94    23    95 1   
    95    24    96 1   
    96    24    97 1   
    97    26    98 1   
    98    27    99 1   
    99    27   100 1   
   100    27   101 1   
   101    31   102 1   
   102    32   103 1   
   103    32   104 1   
   104    32   105 1   
   105    36   106 1   
   106    37   107 1   
   107    37   108 1   
   108    37   109 1   
   109    41   110 1   
   110    42   111 1   
   111    42   112 1   
   112    42   113 1   
   113    46   114 1   
   114    47   115 1   
   115    47   116 1   
   116    47   117 1   
   117    51   118 1   
   118    52   119 1   
   119    52   120 1   
   120    52   121 1   
   121    56   122 1   
   122    57   123 1   
   123    57   124 1   
   124    57   125 1   
   125    61   126 1   
   126    62   127 1   
   127    62   128 1   
   128    62   129 1   
   129    63   130 1   
@<TRIPOS>SUBSTRUCTURE
     1 LIG         1 TEMP              0 ****  ****    0 ROOT