@<TRIPOS>MOLECULE
*****
 82 81 0 0 0
SMALL
GASTEIGER

@<TRIPOS>ATOM
      1 O           0.7676   -0.7395    0.3282 O.3     1  UNL1       -0.3927
      2 C           0.5719   -1.3159   -0.9539 C.3     1  UNL1        0.0676
      3 C           1.4957   -1.0467   -2.1646 C.3     1  UNL1        0.0708
      4 O           2.8903   -0.8443   -2.1984 O.3     1  UNL1       -0.3752
      5 C           3.3246    0.1141   -1.2481 C.3     1  UNL1        0.0711
      6 C           2.6829    1.4471   -1.2153 C.3     1  UNL1        0.0711
      7 O           1.2974    1.6997   -1.7955 O.3     1  UNL1       -0.3752
      8 C           0.2435    1.2154   -2.7011 C.3     1  UNL1        0.0711
      9 C           0.7799    1.3842   -4.0520 C.3     1  UNL1        0.0711
     10 O           2.1004    1.7589   -4.3430 O.3     1  UNL1       -0.3752
     11 C           2.5055    2.9609   -3.6532 C.3     1  UNL1        0.0711
     12 C           1.4072    4.4812   -3.0172 C.3     1  UNL1        0.0711
     13 O           0.1146    4.7515   -3.3335 O.3     1  UNL1       -0.3752
     14 C           0.0616    4.1257   -4.5263 C.3     1  UNL1        0.0711
     15 C           1.0396    4.5550   -5.5750 C.3     1  UNL1        0.0721
     16 O           2.6209    4.4601   -5.2479 O.3     1  UNL1       -0.3634
     17 C           3.4298    5.0545   -3.8618 C.3     1  UNL1        0.1523
     18 C           2.8410    6.5721   -4.1328 C.3     1  UNL1       -0.0282
     19 C           3.4277    4.4073   -2.0160 C.2     1  UNL1        0.3368
     20 O           4.5180    4.1777   -1.2952 O.2     1  UNL1       -0.2479
     21 O           2.1251    3.7448   -1.3725 O.3     1  UNL1       -0.4484
     22 C           0.5756    3.3517   -0.4908 C.3     1  UNL1        0.1962
     23 C           0.3793    1.9535    0.2069 C.3     1  UNL1       -0.0170
     24 C           0.8442    4.3682    0.4525 C.2     1  UNL1        0.3489
     25 O          -0.0308    5.0483    0.9793 O.2     1  UNL1       -0.2466
     26 O           2.1767    4.3216    0.6334 O.3     1  UNL1       -0.4476
     27 C           2.8384    5.1230    1.5543 C.3     1  UNL1        0.1962
     28 C           2.4156    6.5457    1.3930 C.3     1  UNL1       -0.0170
     29 C           2.5030    4.3736    2.7966 C.2     1  UNL1        0.3489
     30 O           3.3693    3.8124    3.4496 O.2     1  UNL1       -0.2466
     31 O           1.1625    4.2862    2.9926 O.3     1  UNL1       -0.4476
     32 C           0.6214    3.5973    4.1124 C.3     1  UNL1        0.1962
     33 C           1.0222    2.1385    4.1473 C.3     1  UNL1       -0.0170
     34 C           0.9647    4.3603    5.3715 C.2     1  UNL1        0.3487
     35 O           0.1204    4.8357    6.1179 O.2     1  UNL1       -0.2466
     36 O           2.3034    4.4755    5.5454 O.3     1  UNL1       -0.4517
     37 C           2.8240    5.2204    6.6459 C.3     1  UNL1        0.1548
     38 C           2.3951    6.6749    6.5773 C.3     1  UNL1       -0.0209
     39 C           2.4159    4.5561    7.9424 C.2     1  UNL1        0.1604
     40 O           3.2158    4.1119    8.7610 O.2     1  UNL1       -0.2971
     41 H           1.6600   -0.4075    0.4530 H       1  UNL1        0.2095
     42 H           0.6529   -2.3680   -0.8172 H       1  UNL1        0.0580
     43 H          -0.4696   -1.0183   -1.1951 H       1  UNL1        0.0580
     44 H           1.0412   -1.2981   -3.1417 H       1  UNL1        0.0583
     45 H           1.3633   -0.0551   -2.1488 H       1  UNL1        0.0583
     46 H           3.1944   -0.2900   -0.2652 H       1  UNL1        0.0583
     47 H           4.3916    0.3080   -1.3706 H       1  UNL1        0.0583
     48 H           2.8103    1.9746   -0.2330 H       1  UNL1        0.0583
     49 H           3.5004    2.0840   -1.5858 H       1  UNL1        0.0583
     50 H          -0.2093    0.2254   -2.7881 H       1  UNL1        0.0583
     51 H          -0.7368    1.6789   -2.3923 H       1  UNL1        0.0583
     52 H           0.2836    1.0866   -4.9621 H       1  UNL1        0.0583
     53 H           0.2820    2.2518   -3.7757 H       1  UNL1        0.0583
     54 H           2.5690    2.4734   -2.7931 H       1  UNL1        0.0583
     55 H           3.6590    2.9296   -3.6383 H       1  UNL1        0.0583
     56 H           1.5106    5.1658   -2.0906 H       1  UNL1        0.0583
     57 H           1.8890    5.3841   -3.1237 H       1  UNL1        0.0583
     58 H           0.7626    3.3650   -4.5321 H       1  UNL1        0.0583
     59 H          -0.8877    3.5905   -4.4661 H       1  UNL1        0.0583
     60 H           0.8164    3.7852   -6.3503 H       1  UNL1        0.0583
     61 H           0.7549    5.5631   -5.7732 H       1  UNL1        0.0583
     62 H           4.4810    4.9425   -4.2076 H       1  UNL1        0.0710
     63 H           1.7111    6.6046   -4.2083 H       1  UNL1        0.0260
     64 H           3.0264    7.1631   -3.2458 H       1  UNL1        0.0260
     65 H           3.0414    6.9748   -5.1229 H       1  UNL1        0.0260
     66 H          -0.2978    3.5739   -1.1353 H       1  UNL1        0.0850
     67 H           1.3129    1.5555    0.5795 H       1  UNL1        0.0271
     68 H          -0.4830    1.6925    0.8092 H       1  UNL1        0.0271
     69 H           0.0839    1.2018   -0.5158 H       1  UNL1        0.0271
     70 H           3.9135    5.0125    1.3689 H       1  UNL1        0.0850
     71 H           1.3335    6.6603    1.3724 H       1  UNL1        0.0271
     72 H           2.7953    7.1213    2.2258 H       1  UNL1        0.0271
     73 H           2.7663    6.9362    0.4291 H       1  UNL1        0.0271
     74 H          -0.4739    3.6403    4.0144 H       1  UNL1        0.0850
     75 H           2.1064    2.0232    4.1528 H       1  UNL1        0.0271
     76 H           0.6345    1.6524    5.0442 H       1  UNL1        0.0271
     77 H           0.6565    1.6138    3.2579 H       1  UNL1        0.0271
     78 H           3.9201    5.1777    6.5776 H       1  UNL1        0.0809
     79 H           1.3076    6.7758    6.5793 H       1  UNL1        0.0269
     80 H           2.7735    7.2372    7.4333 H       1  UNL1        0.0269
     81 H           2.7479    7.1370    5.6485 H       1  UNL1        0.0269
     82 H           1.3325    4.4767    8.1205 H       1  UNL1        0.1065
@<TRIPOS>BOND
     1     1     2    1
     2     2     3    1
     3     3     4    1
     4     4     5    1
     5     5     6    1
     6     6     7    1
     7     7     8    1
     8     8     9    1
     9     9    10    1
    10    10    11    1
    11    11    12    1
    12    12    13    1
    13    13    14    1
    14    14    15    1
    15    15    16    1
    16    16    17    1
    17    17    18    1
    18    17    19    1
    19    19    20    2
    20    19    21    1
    21    21    22    1
    22    22    23    1
    23    22    24    1
    24    24    25    2
    25    24    26    1
    26    26    27    1
    27    27    28    1
    28    27    29    1
    29    29    30    2
    30    29    31    1
    31    31    32    1
    32    32    33    1
    33    32    34    1
    34    34    35    2
    35    34    36    1
    36    36    37    1
    37    37    38    1
    38    37    39    1
    39    39    40    2
    40     1    41    1
    41     2    42    1
    42     2    43    1
    43     3    44    1
    44     3    45    1
    45     5    46    1
    46     5    47    1
    47     6    48    1
    48     6    49    1
    49     8    50    1
    50     8    51    1
    51     9    52    1
    52     9    53    1
    53    11    54    1
    54    11    55    1
    55    12    56    1
    56    12    57    1
    57    14    58    1
    58    14    59    1
    59    15    60    1
    60    15    61    1
    61    17    62    1
    62    18    63    1
    63    18    64    1
    64    18    65    1
    65    22    66    1
    66    23    67    1
    67    23    68    1
    68    23    69    1
    69    27    70    1
    70    28    71    1
    71    28    72    1
    72    28    73    1
    73    32    74    1
    74    33    75    1
    75    33    76    1
    76    33    77    1
    77    37    78    1
    78    38    79    1
    79    38    80    1
    80    38    81    1
    81    39    82    1
